# perovskite_CaTiO3_8.02_-13.13_-14.90

data_3D
_audit_creation_date            2024-11-15
_audit_creation_method          P_cif.py

_symmetry_space_group_name_H-M  'P1'
_symmetry_Int_Tables_number     1
_symmetry_cell_setting          triclinic

_cell_length_a                  7.37208
_cell_length_b                  -7.48797
_cell_length_c                  7.54487
_cell_angle_alpha               90
_cell_angle_beta                90
_cell_angle_gamma               90

loop_
  _atom_site_label
  _atom_site_type_symbol
  _atom_site_fract_x
  _atom_site_fract_y
  _atom_site_fract_z
  _atom_site_U_iso_or_equiv
  _atom_site_adp_type
  _atom_site_occupancy
  Ca1   Ca     0.015190   -0.011085    0.009117    0.005183 Uiso  1.0000
  Ca2   Ca     0.515190   -0.011085    0.009117    0.005183 Uiso  1.0000
  Ca3   Ca     0.015190   -0.511085    0.009117    0.005183 Uiso  1.0000
  Ca4   Ca     0.515190   -0.511085    0.009117    0.005183 Uiso  1.0000
  Ca5   Ca     0.015190   -0.011085    0.509117    0.005183 Uiso  1.0000
  Ca6   Ca     0.515190   -0.011085    0.509117    0.005183 Uiso  1.0000
  Ca7   Ca     0.015190   -0.511085    0.509117    0.005183 Uiso  1.0000
  Ca8   Ca     0.515190   -0.511085    0.509117    0.005183 Uiso  1.0000
  Ti1   Ti     0.265190   -0.261085    0.259117    0.002699 Uiso  1.0000
  Ti2   Ti     0.765190   -0.261085    0.259117    0.002699 Uiso  1.0000
  Ti3   Ti     0.265190   -0.761085    0.259117    0.002699 Uiso  1.0000
  Ti4   Ti     0.765190   -0.761085    0.259117    0.002699 Uiso  1.0000
  Ti5   Ti     0.265190   -0.261085    0.759117    0.002699 Uiso  1.0000
  Ti6   Ti     0.765190   -0.261085    0.759117    0.002699 Uiso  1.0000
  Ti7   Ti     0.265190   -0.761085    0.759117    0.002699 Uiso  1.0000
  Ti8   Ti     0.765190   -0.761085    0.759117    0.002699 Uiso  1.0000
  O1    O      0.015190   -0.326576    0.202137    0.010411 Uiso  1.0000
  O2    O      0.515190   -0.195595    0.316096    0.010411 Uiso  1.0000
  O3    O      0.197624   -0.011085    0.294075    0.010411 Uiso  1.0000
  O4    O      0.332755   -0.511085    0.224158    0.010411 Uiso  1.0000
  O5    O      0.324871   -0.225594    0.009117    0.010411 Uiso  1.0000
  O6    O      0.205508   -0.296577    0.509117    0.010411 Uiso  1.0000
  O7    O      0.832755   -0.011085    0.294075    0.010411 Uiso  1.0000
  O8    O      0.697624   -0.511085    0.224158    0.010411 Uiso  1.0000
  O9    O      0.705508   -0.225594    0.009117    0.010411 Uiso  1.0000
  O10   O      0.824871   -0.296577    0.509117    0.010411 Uiso  1.0000
  O11   O      0.015190   -0.695595    0.316096    0.010411 Uiso  1.0000
  O12   O      0.515190   -0.826576    0.202137    0.010411 Uiso  1.0000
  O13   O      0.205508   -0.796577    0.009117    0.010411 Uiso  1.0000
  O14   O      0.324871   -0.725594    0.509117    0.010411 Uiso  1.0000
  O15   O      0.824871   -0.796577    0.009117    0.010411 Uiso  1.0000
  O16   O      0.705508   -0.725594    0.509117    0.010411 Uiso  1.0000
  O17   O      0.015190   -0.195595    0.816096    0.010411 Uiso  1.0000
  O18   O      0.515190   -0.326576    0.702137    0.010411 Uiso  1.0000
  O19   O      0.332755   -0.011085    0.724158    0.010411 Uiso  1.0000
  O20   O      0.197624   -0.511085    0.794075    0.010411 Uiso  1.0000
  O21   O      0.697624   -0.011085    0.724158    0.010411 Uiso  1.0000
  O22   O      0.832755   -0.511085    0.794075    0.010411 Uiso  1.0000
  O23   O      0.015190   -0.826576    0.702137    0.010411 Uiso  1.0000
  O24   O      0.515190   -0.695595    0.816096    0.010411 Uiso  1.0000
