# perovskite_CaTiO3_12.00_-10.00_8.00

data_3D
_audit_creation_date            2024-09-25
_audit_creation_method          P_cif.py

_symmetry_space_group_name_H-M  'P1'
_symmetry_Int_Tables_number     1
_symmetry_cell_setting          triclinic

_cell_length_a                  7.62625
_cell_length_b                  -7.61397
_cell_length_c                  7.53291
_cell_angle_alpha               90
_cell_angle_beta                90
_cell_angle_gamma               90

loop_
  _atom_site_label
  _atom_site_type_symbol
  _atom_site_fract_x
  _atom_site_fract_y
  _atom_site_fract_z
  _atom_site_U_iso_or_equiv
  _atom_site_adp_type
  _atom_site_occupancy
  Ca1   Ca     0.000000    0.000000    0.000000    0.005183 Uiso  1.0000
  Ca2   Ca     0.506351    0.000000    0.000000    0.005183 Uiso  1.0000
  Ca3   Ca     0.000000   -0.505475    0.000000    0.005183 Uiso  1.0000
  Ca4   Ca     0.506351   -0.505475    0.000000    0.005183 Uiso  1.0000
  Ca5   Ca     0.000000    0.000000    0.509528    0.005183 Uiso  1.0000
  Ca6   Ca     0.506351    0.000000    0.509528    0.005183 Uiso  1.0000
  Ca7   Ca     0.000000   -0.505475    0.509528    0.005183 Uiso  1.0000
  Ca8   Ca     0.506351   -0.505475    0.509528    0.005183 Uiso  1.0000
  Ti1   Ti     0.256351   -0.256765    0.259528    0.002699 Uiso  1.0000
  Ti2   Ti     0.756351   -0.256765    0.259528    0.002699 Uiso  1.0000
  Ti3   Ti     0.256351   -0.754185    0.259528    0.002699 Uiso  1.0000
  Ti4   Ti     0.756351   -0.754185    0.259528    0.002699 Uiso  1.0000
  Ti5   Ti     0.256351   -0.256765    0.759528    0.002699 Uiso  1.0000
  Ti6   Ti     0.756351   -0.256765    0.759528    0.002699 Uiso  1.0000
  Ti7   Ti     0.256351   -0.754185    0.759528    0.002699 Uiso  1.0000
  Ti8   Ti     0.756351   -0.754185    0.759528    0.002699 Uiso  1.0000
  O1    O      0.006351   -0.230991    0.208366    0.010411 Uiso  1.0000
  O2    O      0.506351   -0.282539    0.310690    0.010411 Uiso  1.0000
  O3    O      0.291487   -0.006765    0.212229    0.010411 Uiso  1.0000
  O4    O      0.221216   -0.506765    0.306827    0.010411 Uiso  1.0000
  O5    O      0.300866   -0.309338    0.009528    0.010411 Uiso  1.0000
  O6    O      0.211836   -0.204192    0.509528    0.010411 Uiso  1.0000
  O7    O      0.804190   -0.009345    0.319097    0.010411 Uiso  1.0000
  O8    O      0.733919   -0.504185    0.199959    0.010411 Uiso  1.0000
  O9    O      0.813569   -0.204192    0.009528    0.010411 Uiso  1.0000
  O10   O      0.724539   -0.309338    0.509528    0.010411 Uiso  1.0000
  O11   O      0.006351   -0.726161    0.295671    0.010411 Uiso  1.0000
  O12   O      0.506351   -0.814429    0.223385    0.010411 Uiso  1.0000
  O13   O      0.211836   -0.822868    0.009528    0.010411 Uiso  1.0000
  O14   O      0.300866   -0.717722    0.509528    0.010411 Uiso  1.0000
  O15   O      0.724539   -0.717722    0.009528    0.010411 Uiso  1.0000
  O16   O      0.813569   -0.822868    0.509528    0.010411 Uiso  1.0000
  O17   O      0.006351   -0.300899    0.742441    0.010411 Uiso  1.0000
  O18   O      0.506351   -0.212631    0.814727    0.010411 Uiso  1.0000
  O19   O      0.221216   -0.009345    0.719015    0.010411 Uiso  1.0000
  O20   O      0.291487   -0.504185    0.838153    0.010411 Uiso  1.0000
  O21   O      0.733919   -0.006765    0.825883    0.010411 Uiso  1.0000
  O22   O      0.804190   -0.506765    0.731285    0.010411 Uiso  1.0000
  O23   O      0.006351   -0.796069    0.829746    0.010411 Uiso  1.0000
  O24   O      0.506351   -0.744521    0.727422    0.010411 Uiso  1.0000
