# perovskite_CaTiO3_0.00_-8.00_0.00

data_3D
_audit_creation_date            2024-11-15
_audit_creation_method          P_cif.py

_symmetry_space_group_name_H-M  'P1'
_symmetry_Int_Tables_number     1
_symmetry_cell_setting          triclinic

_cell_length_a                  7.7439
_cell_length_b                  -7.82
_cell_length_c                  7.7439
_cell_angle_alpha               90
_cell_angle_beta                90
_cell_angle_gamma               90

loop_
  _atom_site_label
  _atom_site_type_symbol
  _atom_site_fract_x
  _atom_site_fract_y
  _atom_site_fract_z
  _atom_site_U_iso_or_equiv
  _atom_site_adp_type
  _atom_site_occupancy
  Ca1   Ca    -1.955000   -1.955000   -1.955000    0.005183 Uiso  1.0000
  Ca2   Ca    -1.452543   -1.955000   -1.955000    0.005183 Uiso  1.0000
  Ca3   Ca    -1.955000   -2.455000   -1.955000    0.005183 Uiso  1.0000
  Ca4   Ca    -1.452543   -2.455000   -1.955000    0.005183 Uiso  1.0000
  Ca5   Ca    -1.955000   -1.955000   -1.452543    0.005183 Uiso  1.0000
  Ca6   Ca    -1.452543   -1.955000   -1.452543    0.005183 Uiso  1.0000
  Ca7   Ca    -1.955000   -2.455000   -1.452543    0.005183 Uiso  1.0000
  Ca8   Ca    -1.452543   -2.455000   -1.452543    0.005183 Uiso  1.0000
  Ti1   Ti    -1.702543   -2.205000   -1.702543    0.002699 Uiso  1.0000
  Ti2   Ti    -1.202543   -2.205000   -1.702543    0.002699 Uiso  1.0000
  Ti3   Ti    -1.702543   -2.705000   -1.702543    0.002699 Uiso  1.0000
  Ti4   Ti    -1.202543   -2.705000   -1.702543    0.002699 Uiso  1.0000
  Ti5   Ti    -1.702543   -2.205000   -1.202543    0.002699 Uiso  1.0000
  Ti6   Ti    -1.202543   -2.205000   -1.202543    0.002699 Uiso  1.0000
  Ti7   Ti    -1.702543   -2.705000   -1.202543    0.002699 Uiso  1.0000
  Ti8   Ti    -1.202543   -2.705000   -1.202543    0.002699 Uiso  1.0000
  O1    O     -1.952543   -2.205000   -1.737678    0.010411 Uiso  1.0000
  O2    O     -1.452543   -2.205000   -1.667408    0.010411 Uiso  1.0000
  O3    O     -1.702543   -1.955000   -1.702543    0.010411 Uiso  1.0000
  O4    O     -1.702543   -2.455000   -1.702543    0.010411 Uiso  1.0000
  O5    O     -1.667408   -2.205000   -1.952543    0.010411 Uiso  1.0000
  O6    O     -1.737678   -2.205000   -1.452543    0.010411 Uiso  1.0000
  O7    O     -1.197629   -1.955000   -1.702543    0.010411 Uiso  1.0000
  O8    O     -1.197629   -2.455000   -1.702543    0.010411 Uiso  1.0000
  O9    O     -1.232765   -2.205000   -1.952543    0.010411 Uiso  1.0000
  O10   O     -1.162494   -2.205000   -1.452543    0.010411 Uiso  1.0000
  O11   O     -1.952543   -2.705000   -1.667408    0.010411 Uiso  1.0000
  O12   O     -1.452543   -2.705000   -1.737678    0.010411 Uiso  1.0000
  O13   O     -1.737678   -2.705000   -1.952543    0.010411 Uiso  1.0000
  O14   O     -1.667408   -2.705000   -1.452543    0.010411 Uiso  1.0000
  O15   O     -1.162494   -2.705000   -1.952543    0.010411 Uiso  1.0000
  O16   O     -1.232765   -2.705000   -1.452543    0.010411 Uiso  1.0000
  O17   O     -1.952543   -2.205000   -1.162494    0.010411 Uiso  1.0000
  O18   O     -1.452543   -2.205000   -1.232765    0.010411 Uiso  1.0000
  O19   O     -1.702543   -1.955000   -1.197629    0.010411 Uiso  1.0000
  O20   O     -1.702543   -2.455000   -1.197629    0.010411 Uiso  1.0000
  O21   O     -1.197629   -1.955000   -1.197629    0.010411 Uiso  1.0000
  O22   O     -1.197629   -2.455000   -1.197629    0.010411 Uiso  1.0000
  O23   O     -1.952543   -2.705000   -1.232765    0.010411 Uiso  1.0000
  O24   O     -1.452543   -2.705000   -1.162494    0.010411 Uiso  1.0000
